3

O   0.000000    0.944863      1.126906 
N   0.273814    1.218677      0.336634 
N  -0.273814    0.671049      0.336634 
C   0.000000    0.944863      0.620187 
H   0.483203    1.428066      0.536871 
H  -0.483203    0.46166      0.536871 
H   0.27042    1.215283     -0.065762 
H  -0.27042    0.674443     -0.065762 
